/*--------------------------------*- C++ -*----------------------------------*\
| =========                 |                                                 |
| \\      /  F ield         | OpenFOAM: The Open Source CFD Toolbox           |
|  \\    /   O peration     | Version:  v2306                                 |
|   \\  /    A nd           | Website:  www.openfoam.com                      |
|    \\/     M anipulation  |                                                 |
\*---------------------------------------------------------------------------*/
FoamFile
{
    version     2.0;
    format      ascii;
    class       dictionary;
    object      blockMeshDict;
}
// ************************************************************************* //

scale   1.0; // Масштабный множитель, на который умножаются значения вершин

// Длины сторон параллелипипеда
Lx 1.0;
Ly 2.0;
Lz 3.0;
// $Lx и т.д. это макро-подстановка, т.е. вместо $Lx подставляется значение

// Набор вершин
vertices
(
    (0    0   0) // Индекс вершины: 0
    ($Lx  0   0) // 1
    ($Lx $Ly  0) // 2
    (0   $Ly  0) // 3
    (0    0  $Lz) // 4
    ($Lx  0  $Lz) // 5
    ($Lx $Ly $Lz) // 6
    (0   $Ly $Lz) // 7
);

// По перечисленным в 'vertices' вершинам можно сформировать блоки
// Каждый блок будет разделен на ячейки
blocks
(
    // (10 10 10) - число разбиений по осям Ox, Oy, Oz соответственно

    // simpleGrading - используется, чтобы задавать отношение:
    // [длины ребра последней ячейки к длине ребра первой ячейки]
    // вдоль соответствующей оси (Ox, Oy, Oz)
    // Например, здесь ребёра вдоль оси (Ox) от начала к концу
    // изменятся в 5 раз
    hex (0 1 2 3 4 5 6 7) (10 10 10) simpleGrading (5 1 1)
);

// Выбор способа соединения вершин
// Не заполнен, поэтому вершины соединяются отрезками
// Это способ по умолчанию
edges
(
);

// "Разметка" граничной области (именование граней параллелипипеда)
boundary
(
    boundaryRegion
    {
        type patch; // Стандартный тип граничной области
        // Список входящих граней
        faces
        (
        (0 3 7 4) // Грань x = 0
        (2 1 5 6) // Грань x = Lx
        (0 1 2 3) // Грань z = 0
        (4 7 6 5) // Грань z = Lz
        (1 0 4 5) // Грань y = 0
        (3 2 6 7) // Грань z = Ly
        );
    }
);


// ************************************************************************* //
