/*--------------------------------*- C++ -*----------------------------------*\
| =========                 |                                                 |
| \\      /  F ield         | OpenFOAM: The Open Source CFD Toolbox           |
|  \\    /   O peration     | Version:  v2306                                 |
|   \\  /    A nd           | Website:  www.openfoam.com                      |
|    \\/     M anipulation  |                                                 |
\*---------------------------------------------------------------------------*/
FoamFile
{
    version     2.0;
    format      ascii;
    class       volScalarField; // Скалярное поле 'T'
    object      T;
}
// * * * * * * * * * * * * * * * * * * * * * * * * * * * * * * * * * * * * * //

// Выбор размерности для поля 'T'
//               кг м с К моль А кд
dimensions      [0  0 0 1   0  0 0]; // Размерность поля 'T' это K-Кельвины

// начальные условия
internalField   uniform 0.0;

// граничные условия
boundaryField
{
    boundaryRegion // имя участка границы
    {
        type    fixedGradient; // равномерные граничные условия второго рода
        gradient    uniform 10.0;
        // здесь 'gradient' означает значение производной по внешней нормали

        // Однородные (нулевые) условия можно задать всего одной строчкой:
        //type  zeroGradient;
    }
}
// ************************************************************************* //
