/*--------------------------------*- C++ -*----------------------------------*\
| =========                 |                                                 |
| \\      /  F ield         | OpenFOAM: The Open Source CFD Toolbox           |
|  \\    /   O peration     | Version:  v2306                                 |
|   \\  /    A nd           | Website:  www.openfoam.com                      |
|    \\/     M anipulation  |                                                 |
\*---------------------------------------------------------------------------*/
FoamFile
{
    version     2.0;
    format      ascii;
    class       volVectorField; // Векторное поле 'U'
    object      U;
}
// * * * * * * * * * * * * * * * * * * * * * * * * * * * * * * * * * * * * * //

dimensions      [0 1 -1 0 0 0 0]; // Размерность поля 'U' это [метры]/[секунды]

// Начальные условия равномерные
internalField   uniform (1.0 0.0 0.0);

// Граничные условя (первого рода, равномерные и нулевые)
boundaryField
{
    boundaryRegion // Имя граничной области (см. файл blockMeshDict)
    {
        type    fixedGradient;
        gradient uniform (1.0 2.0 3.0); // Нормальные составляющие компонент скорости

        // Однородные (нулевые) условия можно задать всего одной строчкой:
        //type  zeroGradient;

        // Также можно задать условия скольжения вдоль стенки
        // (нормальная составляющая скорости равна нулю)
        //type    slip;
    }
}


// ************************************************************************* //
