/*--------------------------------*- C++ -*----------------------------------*\
| =========                 |                                                 |
| \\      /  F ield         | OpenFOAM: The Open Source CFD Toolbox           |
|  \\    /   O peration     | Version:  v2306                                 |
|   \\  /    A nd           | Website:  www.openfoam.com                      |
|    \\/     M anipulation  |                                                 |
\*---------------------------------------------------------------------------*/
FoamFile
{
    version     2.0;
    format      ascii;
    class       volScalarField; // Скалярное поле 'T'
    object      T;
}
// * * * * * * * * * * * * * * * * * * * * * * * * * * * * * * * * * * * * * //

// Выбор размерности для поля 'T'
//               кг м с К моль А кд
dimensions      [0  0 0 1   0  0 0]; // Размерность поля 'T' это K-Кельвины

// Начальные условия равномерные
internalField   uniform 1.0; // Всюду в области в начальный момент времени T=0

// Граничные условя (первого рода, равномерные и нулевые)
boundaryField
{
    boundaryRegion // Имя граничной области (см. файл blockMeshDict)
    {
        type    fixedValue;
        value   uniform 0.0;
    }
 }
// ************************************************************************* //
