/*--------------------------------*- C++ -*----------------------------------*\
| =========                 |                                                 |
| \\      /  F ield         | OpenFOAM: The Open Source CFD Toolbox           |
|  \\    /   O peration     | Version:  v2306                                 |
|   \\  /    A nd           | Website:  www.openfoam.com                      |
|    \\/     M anipulation  |                                                 |
\*---------------------------------------------------------------------------*/
FoamFile
{
    version     2.0;
    format      ascii;
    class       dictionary;
    object      blockMeshDict;
}
// ************************************************************************* //

// Длины сторон параллелипипеда 'D'
Lx 1.0;
Ly 2.0;
Lz 3.0;

scale   1.0; // Масштаб

// Набор вершин параллелипипеда 'D'
// $Lx и т.д. это макро-подстановка
vertices
(
    (0    0   0)
    ($Lx  0   0)
    ($Lx $Ly  0)
    (0   $Ly  0)
    (0    0  $Lz)
    ($Lx  0  $Lz)
    ($Lx $Ly $Lz)
    (0   $Ly $Lz)
);

// (10 10 10) - Число разбиений по осям Ox, Oy, Oz соответственно
// Сетка получается неравномерная, но ортогональная
blocks
(
    hex (0 1 2 3 4 5 6 7) (10 10 10) simpleGrading (1 1 1)
);

// Выбор способа соединения вершин
// Не заполнен, т.к. по умолчанию установлены отерзки - то что нужно
edges
(
);

// "Разметка" граничной области (именование граней параллелипипеда)
boundary
(
    minX // x = 0
    {
        type patch; // стандартный тип граничной области
        faces ( (0 3 7 4) ); // список входящих граней
    }

    maxX // x = Lx
    {
        type patch;
        faces ( (2 1 5 6) );
    }

    minY // y = 0
    {
        type patch;
        faces ( (1 0 4 5) );
    }

    maxY // y = Ly
    {
        type patch;
        faces ( (3 2 6 7) );
    }

    minZ // z = 0
    {
        type patch;
        faces ( (0 1 2 3) );
    }

    maxZ // z = Lz
    {
        type patch;
        faces ( (4 7 6 5) );
    }

);


// ************************************************************************* //
