/*--------------------------------*- C++ -*----------------------------------*\
| =========                 |                                                 |
| \\      /  F ield         | OpenFOAM: The Open Source CFD Toolbox           |
|  \\    /   O peration     | Version:  v2306                                 |
|   \\  /    A nd           | Website:  www.openfoam.com                      |
|    \\/     M anipulation  |                                                 |
\*---------------------------------------------------------------------------*/
FoamFile
{
    version     2.0;
    format      ascii;
    class       dictionary;
    object      controlDict;
}
// ************************************************************************* //

application     laplacianFoam;

startFrom       startTime; // Параметр, определяющий начало расчетов

startTime       0; // Начальное время расчетов
// Для заданного начального времени в директории должнен быть
// одноименный каталог с начальными и граничными условиями

deltaT          0.01; // Шаг по времени

stopAt          endTime; // Параметр, определяющий конец расчетов

endTime         1.0; // Конечное время расчёта

writeControl    timeStep; // Параметр для контроля сохранения данных

writeInterval   100; // Интервал сохранения временных слоев (здесь 100-й слой)

purgeWrite      0;

writeFormat     ascii; // Текстовый формат файлов с данными, есть ещё 'binary'

writePrecision  15; // Число знаков после запятой в десятичной записи значений

writeCompression off; // Если указать 'on', то значения будут в '.zip' формате

timeFormat      general;

timePrecision   6;

runTimeModifiable true;

// Дополнительный раздел для <<функциональных объектов>>
// Они используются для получения дополнительной информации о ходе решения
// Например, для вычисления числа Куранта, а также для пост-обработки данных
// https://www.openfoam.com/documentation/guides/latest/doc/guide-function-objects.html
functions
{
    // Function objects
}

// ************************************************************************* //
