/*--------------------------------*- C++ -*----------------------------------*\
| =========                 |                                                 |
| \\      /  F ield         | OpenFOAM: The Open Source CFD Toolbox           |
|  \\    /   O peration     | Version:  v2306                                 |
|   \\  /    A nd           | Website:  www.openfoam.com                      |
|    \\/     M anipulation  |                                                 |
\*---------------------------------------------------------------------------*/
FoamFile
{
    version     2.0;
    format      ascii;
    class       dictionary;
    object      fvSolution;
}
// ************************************************************************* //

solvers
{
    T // Параметры решения СЛАУ для поля 'T'
    {
        solver          PCG; // Метод сопряженных градиентов
        preconditioner  DIC; // Предобуславливатель

        // Критерий сходимости решения СЛАУ (абсолютная ошибка)
        tolerance       1e-10;

        // Критерий сходимости решения СЛАУ (относительная ошибка)
        relTol          0.0;
    }
}

// ************************************************************************* //
