/*--------------------------------*- C++ -*----------------------------------*\
| =========                 |                                                 |
| \\      /  F ield         | OpenFOAM: The Open Source CFD Toolbox           |
|  \\    /   O peration     | Version:  v2306                                 |
|   \\  /    A nd           | Website:  www.openfoam.com                      |
|    \\/     M anipulation  |                                                 |
\*---------------------------------------------------------------------------*/
FoamFile
{
	version 2.0;
	format ascii;
	class dictionary;
	object setAnalyticSolutionDict;
}
// ************************************************************************* //

expressions
(
	T_an // Вложенный словарь
	{
		field T_an; // Имя для поля аналитического решения
		dimensions [0 0 0 1 0 0 0]; // Размерность поля
		constants {  }

		variables
		(
			"x = pos().x()" // доступ к 'x' комопненте центра каждой ячейки
			"y = pos().y()"
			"z = pos().z()"
			"t = time()"
		 );

		expression // Внутри задается аналитическое решение
		#{
			x*x + 2*t // Формула применяется к каждой ячейке
		#};

		create yes; // Для создаваемых полей
	}
);
// ************************************************************************* //
