/*--------------------------------*- C++ -*----------------------------------*\
| =========                 |                                                 |
| \\      /  F ield         | OpenFOAM: The Open Source CFD Toolbox           |
|  \\    /   O peration     | Version:  v2306                                 |
|   \\  /    A nd           | Website:  www.openfoam.com                      |
|    \\/     M anipulation  |                                                 |
\*---------------------------------------------------------------------------*/
FoamFile
{
    version     2.0;
    format      ascii;
    class       dictionary;
    object      setAbsErrorFieldDict;
}
// ************************************************************************* //

readFields      ( T T_an ); // Получение доступа к значениям используемых полей

expressions
(
    absErr // Вложенный словарь
    {
        field   absErr; // Имя для поля абсолютных ошибок
        dimensions [0 0 0 1 0 0 0]; // Размерность поля
        constants   {  };
        variables   (  );

        expression  #{ mag(T_an - T) #}; //Формула, вычисляемая в каждой ячейке

        create  yes; // Для создаваемых полей
    }
);
// ************************************************************************* //
